
          ============================================================          
                  BEM Acoustics Solver | pyBEM - V0.0.1-alpha
                           (Standard Collocation)
          ============================================================          

--------------------------------------------------------------------------------
*** MODEL SUMMARY ***
    =============
    INPUT file: "pmx_pipe_1m.inp"
    MODEL name: pmx_pipe_1m
    NODES: 803
    ELEMENTS: 478
    NSETS: ['Internal-1_inlet', 'Internal-1_outlet']
    ELSETS: ['pipe', 'Internal-1_inlet_S2', 'Internal-1_outlet_S2']
    AMPLITUDES: ['Amp_pres', 'Amp_impe', 'Amp_vels']
    MATERIALS: {'Air': {'density': 1.21e-12, 'bulk': 0.1424, 'c': 343053.85934751283}}
    FREQUENCIES: 6
    BCs: [{'type': 'PRES', 'set': 'inlet', 'val': 2e-11, 'amp': None}]
--------------------------------------------------------------------------------
***
*Heading
Hash: FU7FqNXE, Date: 03/17/2026, Unit system: MM_TON_S_C
bem_pipe_1m.pmx
pyBEM - BEM solver tests:
circular pipe with surfaces for BCs (vels & impedance)
Generic test model to calc open ends and
quarter wave pipes (open one end).
******
*Node
1, 1.00000000E+003, 0.00000000E+000, 5.00000000E+001
2, 1.00000000E+003, 0.00000000E+000, -5.00000000E+001
3, 0.00000000E+000, 0.00000000E+000, -5.00000000E+001
4, 0.00000000E+000, 0.00000000E+000, 5.00000000E+001
5, 1.00000000E+003, 2.32575539E+001, -4.42615656E+001
6, 1.00000000E+003, 4.17039217E+001, -2.75822935E+001
7, 1.00000000E+003, 4.99444937E+001, -2.35532254E+000
8, 1.00000000E+003, 4.37394442E+001, 2.42252145E+001
9, 1.00000000E+003, 2.61249282E+001, 4.26320082E+001
10, 9.74000000E+002, 6.10000000E-015, -5.00000000E+001
11, 9.47000000E+002, 6.10000000E-015, -5.00000000E+001
12, 9.17000000E+002, 6.10000000E-015, -5.00000000E+001
13, 8.89000000E+002, 6.10000000E-015, -5.00000000E+001
14, 8.63000000E+002, 6.10000000E-015, -5.00000000E+001
15, 8.35000000E+002, 6.10000000E-015, -5.00000000E+001
16, 8.09000000E+002, 6.10000000E-015, -5.00000000E+001
17, 7.83000000E+002, 6.10000000E-015, -5.00000000E+001
18, 7.56000000E+002, 6.10000000E-015, -5.00000000E+001
19, 7.27000000E+002, 6.10000000E-015, -5.00000000E+001
20, 6.99000000E+002, 6.10000000E-015, -5.00000000E+001
** ... 783 like lines cut
***
*Element, Type=S4, Elset=pipe_1m
1, 5, 2, 10, 96
2, 6, 5, 96, 97
3, 7, 6, 97, 98
4, 8, 7, 98, 99
5, 9, 8, 99, 100
6, 1, 9, 100, 50
7, 10, 11, 101, 96
8, 11, 12, 102, 101
9, 12, 13, 103, 102
10, 13, 14, 104, 103
11, 14, 15, 105, 104
12, 15, 16, 106, 105
13, 16, 17, 107, 106
14, 17, 18, 108, 107
15, 18, 19, 109, 108
16, 19, 20, 110, 109
17, 20, 21, 111, 110
18, 21, 22, 112, 111
19, 22, 23, 113, 112
20, 23, 24, 114, 113
** ... 450 like lines cut
***
*Element, Type=S3, Elset=pipe_1m
188, 263, 232, 231
221, 90, 89, 469
379, 408, 409, 441
445, 454, 9, 1
449, 2, 451, 95
453, 6, 7, 452
455, 456, 92, 93
477, 474, 476, 475
***
*Element, Type=mics_S4, Elset=mics_surfs
479, 487, 477, 524, 666
480, 478, 487, 666, 488
481, 489, 488, 666, 667
482, 490, 489, 667, 668
483, 491, 490, 668, 669
484, 492, 491, 669, 670
485, 493, 492, 670, 671
486, 494, 493, 671, 672
487, 495, 494, 672, 673
488, 496, 495, 673, 674
489, 497, 496, 674, 675
490, 498, 497, 675, 676
491, 499, 498, 676, 677
492, 500, 499, 677, 678
493, 501, 500, 678, 679
494, 502, 501, 679, 680
495, 503, 502, 680, 681
496, 504, 503, 681, 682
497, 505, 504, 682, 683
498, 506, 505, 683, 684
** ... 261 like lines cut
***
*Element, Type=mics_S3, Elset=mics_surfs
541, 698, 697, 555
595, 519, 520, 704
622, 520, 521, 772
630, 483, 735, 594
668, 483, 596, 735
670, 766, 765, 626
***
*Nset, Nset=Internal-1_inlet
3, 4, 45, 46, 47, 48, 49, 86, 87, 88, 89, 90, 459, 460, 461, 462,
463, 464, 465, 466, 467, 468, 469, 470, 471, 472, 473, 474, 475, 476
***
*Nset, Nset=Internal-1_outlet
1, 2, 5, 6, 7, 8, 9, 91, 92, 93, 94, 95, 450, 451, 452, 453,
454, 455, 456, 457, 458
***
*Elset, Elset=pipe
1, 2, 3, 4, 5, 6, 7, 8, 9, 10, 11, 12, 13, 14, 15, 16,
17, 18, 19, 20, 21, 22, 23, 24, 25, 26, 27, 28, 29, 30, 31, 32,
33, 34, 35, 36, 37, 38, 39, 40, 41, 42, 43, 44, 45, 46, 47, 48,
49, 50, 51, 52, 53, 54, 55, 56, 57, 58, 59, 60, 61, 62, 63, 64,
65, 66, 67, 68, 69, 70, 71, 72, 73, 74, 75, 76, 77, 78, 79, 80,
81, 82, 83, 84, 85, 86, 87, 88, 89, 90, 91, 92, 93, 94, 95, 96,
97, 98, 99, 100, 101, 102, 103, 104, 105, 106, 107, 108, 109, 110, 111, 112,
113, 114, 115, 116, 117, 118, 119, 120, 121, 122, 123, 124, 125, 126, 127, 128,
129, 130, 131, 132, 133, 134, 135, 136, 137, 138, 139, 140, 141, 142, 143, 144,
145, 146, 147, 148, 149, 150, 151, 152, 153, 154, 155, 156, 157, 158, 159, 160,
161, 162, 163, 164, 165, 166, 167, 168, 169, 170, 171, 172, 173, 174, 175, 176,
177, 178, 179, 180, 181, 182, 183, 184, 185, 186, 187, 188, 189, 190, 191, 192,
193, 194, 195, 196, 197, 198, 199, 200, 201, 202, 203, 204, 205, 206, 207, 208,
209, 210, 211, 212, 213, 214, 215, 216, 217, 218, 219, 220, 221, 222, 223, 224,
225, 226, 227, 228, 229, 230, 231, 232, 233, 234, 235, 236, 237, 238, 239, 240,
241, 242, 243, 244, 245, 246, 247, 248, 249, 250, 251, 252, 253, 254, 255, 256,
257, 258, 259, 260, 261, 262, 263, 264, 265, 266, 267, 268, 269, 270, 271, 272,
273, 274, 275, 276, 277, 278, 279, 280, 281, 282, 283, 284, 285, 286, 287, 288,
289, 290, 291, 292, 293, 294, 295, 296, 297, 298, 299, 300, 301, 302, 303, 304,
305, 306, 307, 308, 309, 310, 311, 312, 313, 314, 315, 316, 317, 318, 319, 320,
** ... 10 like lines cut
***
*Elset, Elset=Internal-1_inlet_S2
220, 221, 441, 458, 459, 460, 461, 462, 463, 464, 465, 466, 467, 468, 469, 470,
471, 472, 473, 474, 475, 476, 477, 478
***
*Elset, Elset=Internal-1_outlet_S2
442, 443, 444, 445, 446, 447, 448, 449, 450, 451, 452, 453, 454, 455, 456, 457
***
*Shell section, Elset=pipe, Material=Air, Offset=0
1
**
** Materials +++++++++++++++++++++++++++++++++++++++++++++++
**
***
*Material, Name=Air
*Density
1.21E-12
*Acoustic Medium
0.1424,
***
*Amplitude, Name=Amp_pres
20, 1.0, 1e4, 100.0
***
*Amplitude, Name=Amp_impe
20, 1.0e-4, 1e4, 100.0e-6
***
*Amplitude, Name=Amp_vels
20, 1.0, 1e4, 100.0
***
*Step
***
*Steady state dynamics
20, 1200, 6, 1
**
** Damping +++++++++++++++++++++++++++++++++++++++++++++++++
**
*Modal damping
1, 1000000, 0.03
**
** Controls ++++++++++++++++++++++++++++++++++++++++++++++++
**
**
** Output frequency ++++++++++++++++++++++++++++++++++++++++
**
**
** Boundary conditions +++++++++++++++++++++++++++++++++++++
**
***
*Boundary, op=New
***
*Boundary, Load case=1
inlet, 8, 8, 2E-11
***
*Cload, op=New
***
*End step
